37
0 1 
 O    3.625459461447   -1.215432433098    1.593729730603
 C    3.479459461366   -0.444432432676    0.672729730098
 O    3.552459461406   -0.835432432890   -0.602270270601
 H    3.323459461281   -0.067432432469   -1.182270270918
 C    3.210459461219    1.041567568138    0.880729730213
 H    3.998459461651    1.614567568452    0.387729729942
 H    3.235459461232    1.236567568245    1.946729730797
 N    1.921459460513    1.469567568373    0.366729729931
 H    1.173459460103    1.759567568532    0.996729730276
 C    1.695459460389    1.603567568446   -0.946270270789
 O    2.515459460838    1.281567568270   -1.818270271267
 C    0.362459459658    2.241567568796   -1.314270270990
 H    0.316459459633    2.276567568815   -2.397270271584
 H    0.352459459652    3.259567569354   -0.921270270775
 N   -0.806540540982    1.545567568415   -0.819270270719
 H   -1.394540541305    1.002567568117   -1.437270271058
 C   -1.220540541210    1.625567568458    0.456729729980
 O   -0.577540540857    2.185567568765    1.352729730471
 C   -2.549540541938    0.951567568089    0.747729730139
 N   -3.323540542362    0.792567568002   -0.481270270534
 H   -3.707540542572    1.687567568492   -0.765270270690
 H   -4.116540542797    0.185567567669   -0.307270270439
 H   -3.034540542204    1.582567568435    1.497729730550
 C   -2.282540541791   -0.417432432661    1.398729730496
 H   -1.821540541539   -0.232432432560    2.369729731028
 H   -3.251540542323   -0.888432432919    1.584729730598
 C   -1.402540541309   -1.323432433158    0.585729730051
 C   -0.059540540573   -1.500432433255    0.938729730244
 H    0.330459459641   -1.003432432982    1.818729730727
 C    0.776459459885   -2.327432433708    0.189729729834
 H    1.803459460448   -2.469432433786    0.491729729999
 C    0.279459459613   -2.975432434063   -0.939270270785
 H    0.928459459968   -3.612432434412   -1.524270271106
 C   -1.056540541120   -2.812432433974   -1.300270270983
 H   -1.452540541337   -3.326432434255   -2.166270271457
 C   -1.891540541577   -1.998432433527   -0.538270270565
 H   -2.931540542147   -1.893432433470   -0.817270270718
