37
0 1 
 O    2.590324325744   -2.726351352845    1.139621622246
 C    2.900324325914   -1.797351352336    0.429621621857
 O    2.826324325873   -1.864351352373   -0.903378378873
 H    3.105324326026   -0.995351351897   -1.282378379081
 C    3.401324326188   -0.468351351608    0.983621622160
 H    4.412324326742   -0.290351351510    0.611621621957
 H    3.423324326200   -0.544351351650    2.065621622754
 N    2.562324325729    0.656648649008    0.613621621958
 H    1.891324325361    1.056648649228    1.268621622317
 C    2.576324325736    1.168648649289   -0.626378378722
 O    3.246324326103    0.692648649028   -1.552378379229
 C    1.700324325256    2.397648649962   -0.817378378826
 H    1.902324325367    2.787648650177   -1.809378379370
 H    1.959324325398    3.146648650373   -0.067378378415
 N    0.287324324482    2.094648649796   -0.712378378769
 H   -0.333675675858    2.145648649824   -1.508378379205
 C   -0.325675675854    1.936648649710    0.471621621880
 O    0.270324324472    1.910648649696    1.554621622473
 C   -1.845675676687    1.820648649647    0.396621621839
 N   -2.298675676935    1.804648649638   -0.993378378923
 H   -3.203675677431    2.247648649880   -1.074378378967
 H   -2.414675676999    0.841648649110   -1.298378379090
 H   -2.210675676887    2.736648650149    0.865621622096
 C   -2.319675676947    0.624648648991    1.245621622304
 H   -1.823675676675    0.681648649022    2.213621622835
 H   -3.394675677536    0.727648649048    1.405621622392
 C   -2.032675676789   -0.682351351725    0.563621621930
 C   -3.008675677325   -1.283351352055   -0.240378378510
 H   -3.992675677864   -0.834351351809   -0.302378378544
 C   -2.739675677177   -2.462351352701   -0.933378378890
 H   -3.508675677598   -2.915351352949   -1.544378379225
 C   -1.485675676490   -3.057351353027   -0.828378378832
 H   -1.273675676374   -3.975351353530   -1.359378379123
 C   -0.505675675953   -2.478351352710   -0.022378378390
 H    0.462324324578   -2.948351352967    0.082621621667
 C   -0.778675676102   -1.296351352062    0.662621621985
 H   -0.020675675687   -0.859351351822    1.301621622335
