37
0 1 
 O    3.393081082941   -2.138864866037    0.346540540731
 C    3.286081082882   -0.973864865399    0.039540540562
 O    3.455081082975   -0.544864865164   -1.212459460124
 H    3.405081082947    0.442135135378   -1.218459460127
 C    2.996081082723    0.114135135197    1.072540541128
 H    3.904081083220    0.711135135525    1.189540541192
 H    2.776081082602   -0.377864865072    2.014540541644
 N    1.890081082117    0.999135135683    0.746540540950
 H    1.047081081655    0.999135135683    1.312540541260
 C    2.001081082178    1.953135136206   -0.189459459563
 O    2.986081082718    2.062135136265   -0.932459459971
 C    0.825081081533    2.913135136732   -0.283459459615
 H    1.038081081650    3.605135137111   -1.091459460058
 H    0.739081081486    3.462135137033    0.655540540900
 N   -0.430918919155    2.245135136366   -0.545459459758
 H   -0.851918919386    2.236135136360   -1.464459460262
 C   -1.161918919556    1.684135136058    0.433540540778
 O   -0.783918919348    1.623135136025    1.608540541422
 C   -2.512918920296    1.138135135759   -0.017459459469
 N   -2.567918920326    1.084135135729   -1.477459460269
 H   -3.529918920853    1.062135135717   -1.789459460440
 H   -2.137918920091    0.220135135256   -1.794459460443
 H   -3.248918920699    1.876135136163    0.313540540712
 C   -2.808918920458   -0.192864864970    0.701540540925
 H   -2.808918920458   -0.008864864870    1.775540541514
 H   -3.810918921007   -0.511864865145    0.410540540766
 C   -1.797918919904   -1.246864865548    0.356540540736
 C   -1.911918919967   -2.006864865964   -0.814459459906
 H   -2.797918920452   -1.906864865910   -1.431459460244
 C   -0.916918919421   -2.913864866462   -1.179459460106
 H   -1.019918919478   -3.485864866775   -2.091459460605
 C    0.201081081191   -3.086864866556   -0.367459459661
 H    0.987081081622   -3.772864866932   -0.650459459816
 C    0.302081081247   -2.372864866165    0.825540540993
 H    1.158081081716   -2.530864866252    1.465540541344
 C   -0.683918919294   -1.457864865664    1.179540541187
 H   -0.606918919251   -0.899864865358    2.103540541693
