37
0 1 
 O    4.143459461730    1.298972973685   -0.441000000242
 C    3.732459461505    0.186972973075   -0.207000000114
 O    4.068459461689   -0.872027027505   -0.950000000521
 H    3.656459461463   -1.678027027947   -0.557000000305
 C    2.808459460999   -0.122027027094    0.968000000531
 H    2.585459460876    0.806972973415    1.480000000811
 H    3.332459461286   -0.796027027463    1.649000000904
 N    1.559459460314   -0.752027027439    0.581000000318
 H    0.736459459863   -0.180027027126    0.450000000247
 C    1.518459460291   -2.050027028151    0.240000000131
 O    2.531459460847   -2.758027028538    0.184000000101
 C    0.164459459550   -2.643027028475   -0.084000000046
 H    0.127459459529   -3.615027029008    0.408000000224
 H    0.116459459523   -2.816027028571   -1.159000000635
 N   -0.955540541064   -1.813027028021    0.263000000144
 H   -1.127540541158   -1.504027027851    1.210000000663
 C   -1.888540541575   -1.447027027820   -0.652000000357
 O   -1.850540541555   -1.746027027984   -1.839000001008
 C   -2.994540542182   -0.559027027333   -0.096000000052
 N   -2.972540542170   -0.530027027318    1.368000000750
 H   -3.456540542435   -1.341027027762    1.736000000951
 H   -3.486540542451    0.275972973124    1.703000000933
 H   -3.929540542694   -0.951027027548   -0.505000000277
 C   -2.793540542071    0.848972973438   -0.679000000372
 H   -2.998540542184    0.784972973403   -1.747000000957
 H   -3.544540542483    1.510972973801   -0.240000000131
 C   -1.415540541316    1.412972973747   -0.473000000259
 C   -0.454540540790    1.296972973684   -1.485000000814
 H   -0.715540540933    0.784972973403   -2.403000001317
 C    0.821459459909    1.835972973979   -1.324000000726
 H    1.554459460312    1.742972973928   -2.114000001159
 C    1.157459460094    2.500972974344   -0.145000000080
 H    2.148459460637    2.915972974571   -0.028000000015
 C    0.212459459576    2.607972974402    0.876000000480
 H    0.462459459713    3.123972974685    1.794000000983
 C   -1.061540541122    2.065972974105    0.713000000391
 H   -1.792540541523    2.170972974163    1.505000000825
