8
0 1 
 N   -1.578718000000   -0.046611000000    0.000000000000
 H   -2.158621000000    0.136396000000   -0.809565000000
 H   -2.158621000000    0.136396000000    0.809565000000
 H   -0.849471000000    0.658193000000    0.000000000000
 N    1.578718000000    0.046611000000    0.000000000000
 H    2.158621000000   -0.136396000000   -0.809565000000
 H    0.849471000000   -0.658193000000    0.000000000000
 H    2.158621000000   -0.136396000000    0.809565000000
