24
0 1 
 N    2.011358700000   -1.213207300000   -0.098237311666
 C    2.025707600000   -0.697179700000   -1.364572911666
 H    2.297520800000   -1.391059200000   -2.145815911666
 C    1.714522600000    0.591965100000   -1.612659211666
 H    1.727287300000    0.990846600000   -2.612175011666
 C    1.308960500000    1.457534000000   -0.520759011666
 O    0.920592600000    2.611086400000   -0.626215711666
 N    1.376888500000    0.839745400000    0.734465588334
 H    1.051804000000    1.386222900000    1.523200988334
 C    1.645990900000   -0.485211300000    1.018556688334
 O    1.561109000000   -0.971806100000    2.129635888334
 H    2.129463500000   -2.201504600000    0.056643388334
 N   -2.011358700000    1.213207300000   -0.098237311666
 C   -2.025707600000    0.697179700000   -1.364572911666
 H   -2.297520800000    1.391059200000   -2.145815911666
 C   -1.714522600000   -0.591965100000   -1.612659211666
 H   -1.727287300000   -0.990846600000   -2.612175011666
 C   -1.308960500000   -1.457534000000   -0.520759011666
 O   -0.920592600000   -2.611086400000   -0.626215711666
 N   -1.376888500000   -0.839745400000    0.734465588334
 H   -1.051804000000   -1.386222900000    1.523200988334
 C   -1.645990900000    0.485211300000    1.018556688334
 O   -1.561109000000    0.971806100000    2.129635888334
 H   -2.129463500000    2.201504600000    0.056643388334
