10
0 1 
 C    0.000140000000   -1.859161000000    0.000000000000
 H   -0.513060000000   -1.494685000000   -0.888551000000
 H   -0.513060000000   -1.494685000000    0.888551000000
 H    1.026339000000   -1.494868000000    0.000000000000
 H   -0.000089000000   -2.948284000000    0.000000000000
 C   -0.000140000000    1.859161000000    0.000000000000
 H    0.000089000000    2.948284000000    0.000000000000
 H    0.513060000000    1.494685000000   -0.888551000000
 H    0.513060000000    1.494685000000    0.888551000000
 H   -1.026339000000    1.494868000000    0.000000000000
